Version 4
SHEET 1 968 680
WIRE 608 -112 320 -112
WIRE 896 -112 608 -112
WIRE 896 -64 896 -112
WIRE 608 -48 608 -112
WIRE 896 80 896 16
WIRE 608 96 608 32
WIRE -208 112 -288 112
WIRE -64 112 -128 112
WIRE 144 112 144 48
WIRE 144 112 128 112
WIRE 320 112 320 -112
WIRE 320 112 224 112
WIRE 320 160 272 160
WIRE -288 176 -288 112
WIRE 320 176 320 160
WIRE 560 176 320 176
WIRE 320 192 320 176
WIRE -64 208 -96 208
WIRE 272 208 272 160
WIRE 272 208 128 208
WIRE -288 288 -288 256
WIRE -96 288 -96 208
WIRE 320 320 320 272
WIRE 608 320 608 192
FLAG -288 288 0
FLAG -288 112 12V_GPIO
FLAG 320 320 0
FLAG 608 320 0
FLAG 896 80 0
FLAG 144 48 v_onoff
SYMBOL voltage -288 160 R0
WINDOW 123 0 0 Left 0
WINDOW 39 24 124 Left 2
SYMATTR SpiceLine Rser=0
SYMATTR InstName V1
SYMATTR Value PULSE(0 12 0 1u 1u 500ms 1000ms 2)
SYMBOL voltage 896 -80 R0
WINDOW 123 0 0 Left 0
WINDOW 39 0 0 Left 0
SYMATTR InstName V2
SYMATTR Value 12V
SYMBOL Optos\\PC817D 32 160 R0
SYMATTR InstName U1
SYMBOL res -112 96 R90
WINDOW 0 0 56 VBottom 2
WINDOW 3 32 56 VTop 2
SYMATTR InstName R1
SYMATTR Value 500
SYMBOL res 240 96 R90
WINDOW 0 0 56 VBottom 2
WINDOW 3 32 56 VTop 2
SYMATTR InstName R2
SYMATTR Value 1000
SYMBOL res 304 176 R0
SYMATTR InstName R3
SYMATTR Value 660
SYMBOL nmos 560 96 R0
SYMATTR InstName M1
SYMATTR Value IPT004N03L
SYMBOL res 592 -64 R0
SYMATTR InstName R4
SYMATTR Value 120
TEXT -320 312 Left 2 !.tran 1200m startup
